
**** 11/28/14 05:00:30 ****** PSpice Lite (October 2012) ****** ID# 10813 ****

 ** Profile: "SCHEMATIC1-pwmSmoothingTest"  [ D:\DROPBOX\CLASSES\ME 344\Maglev lab - Group Files\pwmToAnalogConverter-PSpiceFiles\SCH


 ****     CIRCUIT DESCRIPTION


******************************************************************************




** Creating circuit file "pwmSmoothingTest.cir" 
** WARNING: THIS AUTOMATICALLY GENERATED FILE MAY BE OVERWRITTEN BY SUBSEQUENT SIMULATIONS

*Libraries: 
* Profile Libraries :
* Local Libraries :
* From [PSPICE NETLIST] section of C:\Users\Justin\AppData\Roaming\SPB_16.6\cdssetup\OrCAD_PSpice/16.6.0/PSpice.ini file:
.lib "nomd.lib" 

*Analysis directives: 
.TRAN  0 0.1s 0 500ns 
.OPTIONS ADVCONV
.PROBE64 V(alias(*)) I(alias(*)) W(alias(*)) D(alias(*)) NOISE(alias(*)) 
.INC "..\SCHEMATIC1.net" 



**** INCLUDING SCHEMATIC1.net ****
* source PWMTOANALOGCONVERTER
C_C1         N00698 0  10u  TC=0,0 
R_R1         N00505 N00698  3.9k TC=0,0 
V_V1         N00505 0  
+PULSE 0 5 0 100ns 100ns 1ms 2ms
R_R2         N00505 N03060  3.9k TC=0,0 
C_C2         N03060 0  1u  TC=0,0 

**** RESUMING pwmSmoothingTest.cir ****
.END

**** 11/28/14 05:00:30 ****** PSpice Lite (October 2012) ****** ID# 10813 ****

 ** Profile: "SCHEMATIC1-pwmSmoothingTest"  [ D:\DROPBOX\CLASSES\ME 344\Maglev lab - Group Files\pwmToAnalogConverter-PSpiceFiles\SCH


 ****     INITIAL TRANSIENT SOLUTION       TEMPERATURE =   27.000 DEG C


******************************************************************************



 NODE   VOLTAGE     NODE   VOLTAGE     NODE   VOLTAGE     NODE   VOLTAGE


(N00505)    0.0000 (N00698)    0.0000 (N03060)    0.0000 




    VOLTAGE SOURCE CURRENTS
    NAME         CURRENT

    V_V1         0.000E+00

    TOTAL POWER DISSIPATION   0.00E+00  WATTS



          JOB CONCLUDED

**** 11/28/14 05:00:30 ****** PSpice Lite (October 2012) ****** ID# 10813 ****

 ** Profile: "SCHEMATIC1-pwmSmoothingTest"  [ D:\DROPBOX\CLASSES\ME 344\Maglev lab - Group Files\pwmToAnalogConverter-PSpiceFiles\SCH


 ****     JOB STATISTICS SUMMARY


******************************************************************************



  Total job time (using Solver 1)   =        3.29
